***********************************************
* Library Name: FPGA_v3
* Cell Name:    test
***********************************************

.SUBCKT test rst_l led[0] led[1] led[2] led[3] led[4] led[5] led[6] led[7] clk
*.PININFO rst_l:I led[0]:O led[1]:O led[2]:O led[3]:O led[4]:O led[5]:O led[6]:O led[7]:O clk:I
XC_BUF_rst_l rst_l XC_I_rst_l / xci2_ib
XC_BUF_led[0] XC_O_led[0] led[0] / xci2_ob
XC_BUF_led[1] XC_O_led[1] led[1] / xci2_ob
XC_BUF_led[2] XC_O_led[2] led[2] / xci2_ob
XC_BUF_led[3] XC_O_led[3] led[3] / xci2_ob
XC_BUF_led[4] XC_O_led[4] led[4] / xci2_ob
XC_BUF_led[5] XC_O_led[5] led[5] / xci2_ob
XC_BUF_led[6] XC_O_led[6] led[6] / xci2_ob
XC_BUF_led[7] XC_O_led[7] led[7] / xci2_ob
XC_BUF_clk clk XC_C_clk / xci2_ib_gclk
x._098_ XC_I_rst_l _026_ / xci2_inv
x._099_ counter[0] counter[2] counter[1] _079_ / xci2_and3
x._100_ counter[3] counter[4] _079_ _080_ / xci2_and3
x._101_ counter[5] counter[6] _080_ _081_ / xci2_and3
x._102_ counter[9] counter[10] counter[11] _082_ / xci2_nor3
x._103_ counter[8] _082_ _083_ / xci2_and2ft
x._104_ counter[7] _081_ _083_ _084_ / xci2_nand3fft
x._105_ counter[13] counter[12] counter[14] _085_ / xci2_and3
x._106_ counter[15] _085_ _086_ / xci2_and2
x._107_ _084_ _086_ counter[16] _087_ / xci2_ao21
x._108_ counter[17] _087_ counter[18] _088_ / xci2_ao21
x._109_ counter[20] counter[23] counter[22] _089_ / xci2_and3
x._110_ counter[19] counter[21] _089_ _090_ / xci2_and3
x._111_ _088_ _090_ counter[24] _091_ / xci2_ao21
x._112_ counter[25] _091_ _092_ / xci2_nand2
x._113_ current_led[0] current_led[1] current_led[2] _093_ / xci2_nor3
x._114_ _093_ XC_O_led[0] _092_ _027_ / xci2_mux2h
x._115_ current_led[0] counter[25] _091_ _094_ / xci2_and3
x._116_ current_led[1] current_led[2] current_led[0] _095_ / xci2_and3fft
x._117_ _095_ XC_O_led[1] _092_ _028_ / xci2_mux2h
x._118_ current_led[0] current_led[2] current_led[1] _096_ / xci2_and3fft
x._119_ _096_ XC_O_led[2] _092_ _029_ / xci2_mux2h
x._120_ current_led[1] _094_ _097_ / xci2_nand2
x._121_ current_led[2] _094_ current_led[1] _038_ / xci2_and3ftt
x._122_ XC_O_led[3] _092_ _038_ _030_ / xci2_ao21
x._123_ current_led[0] current_led[1] current_led[2] _039_ / xci2_and3fft
x._124_ _039_ XC_O_led[4] _092_ _031_ / xci2_mux2h
x._125_ current_led[1] current_led[2] current_led[0] _040_ / xci2_and3ftt
x._126_ _040_ XC_O_led[5] _092_ _032_ / xci2_mux2h
x._127_ current_led[0] current_led[1] current_led[2] _041_ / xci2_and3ftt
x._128_ _041_ XC_O_led[6] _092_ _033_ / xci2_mux2h
x._129_ current_led[1] current_led[2] _094_ _042_ / xci2_and3
x._130_ XC_O_led[7] _092_ _042_ _034_ / xci2_ao21
x._131_ current_led[0] _092_ _035_ / xci2_xnor2
x._132_ current_led[1] _094_ _036_ / xci2_xnor2ft
x._133_ current_led[2] _097_ _037_ / xci2_xnor2
x._134_ counter[25] _091_ counter[0] _000_ / xci2_aoi21
x._135_ counter[0] counter[1] _043_ / xci2_xnor2
x._136_ counter[25] _091_ _043_ _011_ / xci2_aoi21
x._137_ counter[0] counter[1] counter[2] _044_ / xci2_ao21
x._138_ _079_ _092_ _044_ _018_ / xci2_and3ftt
x._139_ counter[3] _079_ _045_ / xci2_xnor2
x._140_ counter[25] _091_ _045_ _019_ / xci2_aoi21
x._141_ counter[3] _079_ counter[4] _046_ / xci2_ao21
x._142_ _080_ _092_ _046_ _020_ / xci2_and3ftt
x._143_ counter[5] _080_ _047_ / xci2_xnor2
x._144_ counter[25] _091_ _047_ _021_ / xci2_aoi21
x._145_ counter[5] _080_ counter[6] _048_ / xci2_ao21
x._146_ _081_ _092_ _048_ _022_ / xci2_and3ftt
x._147_ counter[7] _081_ _049_ / xci2_xnor2
x._148_ counter[25] _091_ _049_ _023_ / xci2_aoi21
x._149_ counter[7] _081_ counter[8] _050_ / xci2_ao21
x._150_ counter[8] counter[7] _081_ _051_ / xci2_and3
x._151_ _092_ _050_ _051_ _024_ / xci2_nor3fft
x._152_ counter[9] _051_ _052_ / xci2_xnor2
x._153_ counter[25] _091_ _052_ _025_ / xci2_aoi21
x._154_ counter[9] _051_ counter[10] _053_ / xci2_ao21
x._155_ counter[9] counter[10] _051_ _054_ / xci2_and3
x._156_ _092_ _053_ _054_ _001_ / xci2_nor3fft
x._157_ counter[11] _054_ _055_ / xci2_and2
x._158_ counter[11] _054_ _056_ / xci2_xnor2
x._159_ counter[25] _091_ _056_ _002_ / xci2_aoi21
x._160_ counter[12] _055_ _057_ / xci2_xnor2
x._161_ counter[25] _091_ _057_ _003_ / xci2_aoi21
x._162_ counter[12] _055_ counter[13] _058_ / xci2_ao21
x._163_ counter[13] counter[12] _055_ _059_ / xci2_nand3
x._164_ _092_ _058_ _059_ _004_ / xci2_and3
x._165_ counter[11] _085_ _054_ _060_ / xci2_and3
x._166_ counter[14] _059_ _060_ _061_ / xci2_ao21ftt
x._167_ counter[25] _091_ _061_ _005_ / xci2_aoi21
x._168_ counter[15] _060_ _092_ _062_ / xci2_oai21
x._169_ counter[15] _060_ _062_ _006_ / xci2_aoi21
x._170_ counter[15] _060_ counter[16] _063_ / xci2_ao21
x._171_ counter[16] counter[15] _060_ _064_ / xci2_and3
x._172_ _092_ _063_ _064_ _007_ / xci2_nor3fft
x._173_ counter[17] _064_ _065_ / xci2_xnor2
x._174_ counter[25] _091_ _065_ _008_ / xci2_aoi21
x._175_ counter[17] _064_ counter[18] _066_ / xci2_ao21
x._176_ counter[18] counter[17] _064_ _067_ / xci2_and3
x._177_ _092_ _066_ _067_ _009_ / xci2_nor3fft
x._178_ counter[19] _067_ _092_ _068_ / xci2_oai21
x._179_ counter[19] _067_ _068_ _010_ / xci2_aoi21
x._180_ counter[19] _067_ counter[20] _069_ / xci2_ao21
x._181_ counter[19] counter[20] _067_ _070_ / xci2_and3
x._182_ _092_ _069_ _070_ _012_ / xci2_nor3fft
x._183_ counter[21] _070_ _092_ _071_ / xci2_aoi21ttf
x._184_ counter[21] _070_ _071_ _013_ / xci2_oa21
x._185_ counter[21] _070_ counter[22] _072_ / xci2_ao21
x._186_ counter[21] counter[22] _070_ _073_ / xci2_nand3
x._187_ _092_ _072_ _073_ _014_ / xci2_and3
x._188_ counter[23] _073_ _092_ _074_ / xci2_ao21ftf
x._189_ counter[23] _073_ _074_ _015_ / xci2_oa21ftf
x._190_ counter[23] _073_ counter[24] _075_ / xci2_oai21ftf
x._191_ counter[24] counter[23] _073_ _076_ / xci2_or3fft
x._192_ _092_ _075_ _076_ _016_ / xci2_and3
x._193_ counter[23] _073_ _091_ _077_ / xci2_oai21ftt
x._194_ counter[24] counter[25] _092_ _078_ / xci2_oa21
x._195_ _077_ _078_ _017_ / xci2_and2
x._196_ _027_ XC_C_clk _026_ XC_O_led[0] / xci2_dffs
x._197_ _028_ XC_C_clk XC_I_rst_l XC_O_led[1] / xci2_dffcl
x._198_ _029_ XC_C_clk XC_I_rst_l XC_O_led[2] / xci2_dffcl
x._199_ _030_ XC_C_clk XC_I_rst_l XC_O_led[3] / xci2_dffcl
x._200_ _031_ XC_C_clk XC_I_rst_l XC_O_led[4] / xci2_dffcl
x._201_ _032_ XC_C_clk XC_I_rst_l XC_O_led[5] / xci2_dffcl
x._202_ _033_ XC_C_clk XC_I_rst_l XC_O_led[6] / xci2_dffcl
x._203_ _034_ XC_C_clk XC_I_rst_l XC_O_led[7] / xci2_dffcl
x._204_ _035_ XC_C_clk XC_I_rst_l current_led[0] / xci2_dffcl
x._205_ _036_ XC_C_clk XC_I_rst_l current_led[1] / xci2_dffcl
x._206_ _037_ XC_C_clk XC_I_rst_l current_led[2] / xci2_dffcl
x._207_ _000_ XC_C_clk XC_I_rst_l counter[0] / xci2_dffcl
x._208_ _011_ XC_C_clk XC_I_rst_l counter[1] / xci2_dffcl
x._209_ _018_ XC_C_clk XC_I_rst_l counter[2] / xci2_dffcl
x._210_ _019_ XC_C_clk XC_I_rst_l counter[3] / xci2_dffcl
x._211_ _020_ XC_C_clk XC_I_rst_l counter[4] / xci2_dffcl
x._212_ _021_ XC_C_clk XC_I_rst_l counter[5] / xci2_dffcl
x._213_ _022_ XC_C_clk XC_I_rst_l counter[6] / xci2_dffcl
x._214_ _023_ XC_C_clk XC_I_rst_l counter[7] / xci2_dffcl
x._215_ _024_ XC_C_clk XC_I_rst_l counter[8] / xci2_dffcl
x._216_ _025_ XC_C_clk XC_I_rst_l counter[9] / xci2_dffcl
x._217_ _001_ XC_C_clk XC_I_rst_l counter[10] / xci2_dffcl
x._218_ _002_ XC_C_clk XC_I_rst_l counter[11] / xci2_dffcl
x._219_ _003_ XC_C_clk XC_I_rst_l counter[12] / xci2_dffcl
x._220_ _004_ XC_C_clk XC_I_rst_l counter[13] / xci2_dffcl
x._221_ _005_ XC_C_clk XC_I_rst_l counter[14] / xci2_dffcl
x._222_ _006_ XC_C_clk XC_I_rst_l counter[15] / xci2_dffcl
x._223_ _007_ XC_C_clk XC_I_rst_l counter[16] / xci2_dffcl
x._224_ _008_ XC_C_clk XC_I_rst_l counter[17] / xci2_dffcl
x._225_ _009_ XC_C_clk XC_I_rst_l counter[18] / xci2_dffcl
x._226_ _010_ XC_C_clk XC_I_rst_l counter[19] / xci2_dffcl
x._227_ _012_ XC_C_clk XC_I_rst_l counter[20] / xci2_dffcl
x._228_ _013_ XC_C_clk XC_I_rst_l counter[21] / xci2_dffcl
x._229_ _014_ XC_C_clk XC_I_rst_l counter[22] / xci2_dffcl
x._230_ _015_ XC_C_clk XC_I_rst_l counter[23] / xci2_dffcl
x._231_ _016_ XC_C_clk XC_I_rst_l counter[24] / xci2_dffcl
x._232_ _017_ XC_C_clk XC_I_rst_l counter[25] / xci2_dffcl
XCI2_DEV_OE / xci2_devoe
vGND GND 0 0
vVDD VDD 0 1.8
.ENDS

