***********************************************
* Library Name: FPGA_v3
* Cell Name:    test
***********************************************

.SUBCKT test clk key hex0[0] hex0[1] hex0[2] hex0[3] hex0[4] hex0[5] hex0[6] hex0[7] led[0] led[1] led[2] led[3] led[4] led[5] led[6] led[7]
*.PININFO clk:I key:I hex0[0]:O hex0[1]:O hex0[2]:O hex0[3]:O hex0[4]:O hex0[5]:O hex0[6]:O hex0[7]:O led[0]:O led[1]:O led[2]:O led[3]:O led[4]:O led[5]:O led[6]:O led[7]:O
XC_BUF_clk clk XC_I_clk / xci2_ib
XC_BUF_key key XC_I_key / xci2_ib
XC_BUF_hex0[0] XC_O_hex0[0] hex0[0] / xci2_ob
XC_BUF_hex0[1] XC_O_hex0[1] hex0[1] / xci2_ob
XC_BUF_hex0[2] XC_O_hex0[2] hex0[2] / xci2_ob
XC_BUF_hex0[3] XC_O_hex0[3] hex0[3] / xci2_ob
XC_BUF_hex0[4] XC_O_hex0[4] hex0[4] / xci2_ob
XC_BUF_hex0[5] XC_O_hex0[5] hex0[5] / xci2_ob
XC_BUF_hex0[6] XC_O_hex0[6] hex0[6] / xci2_ob
XC_BUF_hex0[7] XC_O_hex0[7] hex0[7] / xci2_ob
XC_BUF_led[0] XC_O_led[0] led[0] / xci2_ob
XC_BUF_led[1] XC_O_led[1] led[1] / xci2_ob
XC_BUF_led[2] XC_O_led[2] led[2] / xci2_ob
XC_BUF_led[3] XC_O_led[3] led[3] / xci2_ob
XC_BUF_led[4] XC_O_led[4] led[4] / xci2_ob
XC_BUF_led[5] XC_O_led[5] led[5] / xci2_ob
XC_BUF_led[6] XC_O_led[6] led[6] / xci2_ob
XC_BUF_led[7] XC_O_led[7] led[7] / xci2_ob
x._143_ counter[21] counter[22] _129_ / xci2_nor2
x._144_ counter[24] counter[25] _129_ _130_ / xci2_and3fft
x._145_ counter[14] counter[16] _131_ / xci2_nor2
x._146_ counter[17] counter[18] _131_ _132_ / xci2_and3fft
x._147_ counter[6] counter[8] _133_ / xci2_nor2
x._148_ counter[11] counter[13] _133_ _134_ / xci2_and3fft
x._149_ _130_ _132_ _134_ _135_ / xci2_and3
x._150_ counter[9] counter[10] _136_ / xci2_and2
x._151_ counter[19] counter[20] _137_ / xci2_and2
x._152_ counter[0] counter[1] _138_ / xci2_nor2
x._153_ _136_ _137_ _138_ _139_ / xci2_and3
x._154_ counter[2] counter[3] _140_ / xci2_nor2
x._155_ counter[4] counter[5] _140_ _141_ / xci2_and3fft
x._156_ counter[15] counter[23] _142_ / xci2_and2
x._157_ counter[7] counter[12] _142_ _038_ / xci2_and3
x._158_ _139_ _141_ _038_ _039_ / xci2_and3
x._159_ _135_ _039_ _040_ / xci2_and2
x._160_ counter[4] _131_ counter[7] _041_ / xci2_nand3ftt
x._161_ _041_ counter[2] _137_ _042_ / xci2_and3fft
x._162_ counter[13] counter[18] _136_ _043_ / xci2_and3fft
x._163_ counter[3] counter[22] _043_ _044_ / xci2_and3fft
x._164_ counter[6] counter[11] counter[25] _045_ / xci2_nor3
x._165_ counter[21] counter[24] _046_ / xci2_or2
x._166_ counter[8] _046_ counter[12] _047_ / xci2_and3fft
x._167_ counter[17] counter[23] counter[15] _048_ / xci2_nand3ftt
x._168_ _048_ counter[5] _138_ _049_ / xci2_and3fft
x._169_ _045_ _047_ _049_ _050_ / xci2_and3
x._170_ _042_ _044_ _050_ _051_ / xci2_nand3
x._171_ _040_ XC_I_key _052_ / xci2_and2ft
x._172_ counter[0] _051_ XC_I_key _000_ / xci2_and3ftt
x._173_ counter[0] counter[1] _053_ / xci2_xnor2ft
x._174_ XC_I_key _051_ _053_ _001_ / xci2_and3
x._175_ counter[0] counter[1] counter[2] _054_ / xci2_aoi21
x._176_ counter[0] counter[1] counter[2] _055_ / xci2_and3
x._177_ _054_ _055_ _052_ _002_ / xci2_and3fft
x._178_ counter[3] _055_ _056_ / xci2_xnor2ft
x._179_ XC_I_key _051_ _056_ _003_ / xci2_and3
x._180_ counter[3] _055_ counter[4] _057_ / xci2_aoi21
x._181_ counter[3] counter[4] _055_ _058_ / xci2_and3
x._182_ _057_ _058_ _052_ _004_ / xci2_and3fft
x._183_ counter[5] _058_ _059_ / xci2_xnor2ft
x._184_ XC_I_key _051_ _059_ _005_ / xci2_and3
x._185_ counter[5] counter[6] _058_ _060_ / xci2_and3
x._186_ counter[5] _058_ counter[6] _061_ / xci2_aoi21
x._187_ _060_ _061_ _052_ _006_ / xci2_and3fft
x._188_ counter[7] _060_ _052_ _062_ / xci2_oai21
x._189_ counter[7] _060_ _062_ _007_ / xci2_aoi21
x._190_ counter[7] counter[8] _060_ _063_ / xci2_and3
x._191_ counter[7] _060_ counter[8] _064_ / xci2_aoi21
x._192_ _063_ _064_ _052_ _008_ / xci2_and3fft
x._193_ counter[9] _063_ _052_ _065_ / xci2_oai21
x._194_ counter[9] _063_ _065_ _009_ / xci2_aoi21
x._195_ counter[9] _063_ counter[10] _066_ / xci2_ao21
x._196_ _136_ _063_ _067_ / xci2_nand2
x._197_ _052_ _066_ _067_ _010_ / xci2_and3
x._198_ _136_ _063_ counter[11] _068_ / xci2_aoi21
x._199_ counter[11] _136_ _063_ _069_ / xci2_and3
x._200_ _068_ _069_ _052_ _011_ / xci2_and3fft
x._201_ counter[12] _069_ _052_ _070_ / xci2_oai21
x._202_ counter[12] _069_ _070_ _012_ / xci2_aoi21
x._203_ counter[12] _069_ counter[13] _071_ / xci2_aoi21
x._204_ counter[12] counter[13] _069_ _072_ / xci2_and3
x._205_ _071_ _072_ _052_ _013_ / xci2_and3fft
x._206_ counter[14] _072_ _052_ _073_ / xci2_oai21
x._207_ counter[14] _072_ _073_ _014_ / xci2_aoi21
x._208_ counter[14] _072_ counter[15] _074_ / xci2_aoi21
x._209_ counter[15] counter[14] _072_ _075_ / xci2_and3
x._210_ _074_ _075_ _052_ _015_ / xci2_and3fft
x._211_ counter[16] _075_ _052_ _076_ / xci2_oai21
x._212_ counter[16] _075_ _076_ _016_ / xci2_aoi21
x._213_ counter[16] _075_ counter[17] _077_ / xci2_aoi21
x._214_ counter[16] counter[17] _075_ _078_ / xci2_and3
x._215_ _077_ _078_ _052_ _017_ / xci2_and3fft
x._216_ counter[18] _078_ _052_ _079_ / xci2_oa21
x._217_ counter[18] _078_ _080_ / xci2_and2
x._218_ _080_ _079_ _018_ / xci2_and2ft
x._219_ counter[19] _080_ _052_ _081_ / xci2_oai21
x._220_ counter[19] _080_ _081_ _019_ / xci2_aoi21
x._221_ counter[19] _080_ counter[20] _082_ / xci2_ao21
x._222_ counter[18] _137_ _078_ _083_ / xci2_and3
x._223_ counter[18] _137_ _078_ _084_ / xci2_nand3
x._224_ _052_ _082_ _084_ _020_ / xci2_and3
x._225_ counter[21] _083_ _052_ _085_ / xci2_aoi21ttf
x._226_ counter[21] _084_ _085_ _021_ / xci2_aoi21ftf
x._227_ counter[21] _083_ counter[22] _086_ / xci2_aoi21
x._228_ counter[21] counter[22] _083_ _087_ / xci2_and3
x._229_ _086_ _087_ _052_ _022_ / xci2_and3fft
x._230_ counter[23] _087_ _052_ _088_ / xci2_oai21
x._231_ counter[23] _087_ _088_ _023_ / xci2_aoi21
x._232_ counter[23] _087_ counter[24] _089_ / xci2_ao21
x._233_ counter[23] counter[24] _087_ _090_ / xci2_nand3
x._234_ _052_ _089_ _090_ _024_ / xci2_and3
x._235_ counter[25] _090_ _091_ / xci2_xnor2
x._236_ _052_ _091_ _025_ / xci2_and2
x._237_ XC_O_led[0] _051_ XC_I_key _092_ / xci2_aoi21ftf
x._238_ XC_O_led[0] _051_ _093_ / xci2_or2ft
x._239_ _092_ _093_ _026_ / xci2_and2
x._240_ XC_O_led[1] _093_ XC_I_key _094_ / xci2_aoi21ftf
x._241_ XC_O_led[0] XC_O_led[1] _040_ _095_ / xci2_and3
x._242_ XC_O_led[0] XC_O_led[1] _096_ / xci2_nand2
x._243_ _095_ _094_ _027_ / xci2_and2ft
x._244_ XC_O_led[2] _095_ _097_ / xci2_or2
x._245_ XC_O_led[2] _051_ _096_ _098_ / xci2_or3ftt
x._246_ XC_I_key _097_ _098_ _028_ / xci2_and3
x._247_ XC_O_led[3] _098_ XC_I_key _099_ / xci2_aoi21ftf
x._248_ XC_O_led[2] XC_O_led[3] _095_ _100_ / xci2_nand3
x._249_ _099_ _100_ _029_ / xci2_and2
x._250_ XC_O_led[4] _100_ XC_I_key _101_ / xci2_aoi21ftf
x._251_ XC_O_led[4] _100_ _102_ / xci2_or2ft
x._252_ _101_ _102_ _030_ / xci2_and2
x._253_ XC_O_led[5] _102_ XC_I_key _103_ / xci2_aoi21ftf
x._254_ XC_O_led[4] XC_O_led[5] _100_ _104_ / xci2_or3fft
x._255_ _103_ _104_ _031_ / xci2_and2
x._256_ XC_O_led[6] _104_ XC_I_key _105_ / xci2_aoi21ftf
x._257_ XC_O_led[6] _104_ _106_ / xci2_nor2ft
x._258_ _106_ _105_ _032_ / xci2_and2ft
x._259_ XC_O_led[7] _106_ _107_ / xci2_xnor2
x._260_ _107_ XC_I_key _033_ / xci2_and2ft
x._261_ num[0] _051_ _108_ / xci2_xnor2
x._262_ XC_I_key _108_ _034_ / xci2_and2
x._263_ num[0] num[2] num[1] _109_ / xci2_nand3fft
x._264_ num[3] _109_ num[1] _110_ / xci2_oa21ftt
x._265_ num[0] num[1] _111_ / xci2_xnor2ft
x._266_ _110_ _111_ _040_ _112_ / xci2_mux2h
x._267_ XC_I_key _112_ _035_ / xci2_and2
x._268_ num[0] num[1] _051_ _113_ / xci2_or3fft
x._269_ num[0] num[1] num[2] _114_ / xci2_and3
x._270_ _051_ _114_ XC_I_key _115_ / xci2_aoi21ftf
x._271_ num[2] _113_ _115_ _036_ / xci2_aoi21ftf
x._272_ num[3] _051_ _109_ _116_ / xci2_and3
x._273_ num[3] num[2] _117_ / xci2_nand2ft
x._274_ num[3] _114_ XC_O_hex0[0] / xci2_nand2ft
x._275_ num[3] _114_ _118_ / xci2_xnor2ft
x._276_ _051_ _118_ _119_ / xci2_nand2ft
x._277_ _116_ _119_ XC_I_key _037_ / xci2_aoi21ftf
x._278_ num[1] num[2] _120_ / xci2_or2
x._279_ _114_ _120_ num[3] XC_O_hex0[1] / xci2_ao21ftt
x._280_ num[0] num[1] num[2] _121_ / xci2_ao21ttf
x._281_ num[0] num[1] num[3] _122_ / xci2_oai21ttf
x._282_ num[2] _117_ num[1] _123_ / xci2_mux2h
x._283_ num[3] num[0] _123_ _124_ / xci2_ao21ftt
x._284_ num[1] num[2] num[3] _125_ / xci2_oai21
x._285_ _122_ _121_ XC_O_hex0[2] / xci2_nand2ft
x._286_ num[1] num[2] num[0] _126_ / xci2_ao21ftt
x._287_ _125_ _126_ XC_O_hex0[3] / xci2_nand2
x._288_ num[1] num[2] _127_ / xci2_xnor2ft
x._289_ _122_ _127_ _124_ _128_ / xci2_aoi21ftf
x._290_ _125_ _128_ XC_O_hex0[4] / xci2_nand2
x._291_ num[3] _109_ XC_O_hex0[5] / xci2_or2
x._292_ _111_ _117_ XC_O_hex0[6] / xci2_or2ft
x._293_ XC_O_hex0[0] _128_ XC_O_hex0[7] / xci2_nand2
x._294_ _000_ XC_I_clk counter[0] / xci2_dff
x._295_ _001_ XC_I_clk counter[1] / xci2_dff
x._296_ _002_ XC_I_clk counter[2] / xci2_dff
x._297_ _003_ XC_I_clk counter[3] / xci2_dff
x._298_ _004_ XC_I_clk counter[4] / xci2_dff
x._299_ _005_ XC_I_clk counter[5] / xci2_dff
x._300_ _006_ XC_I_clk counter[6] / xci2_dff
x._301_ _007_ XC_I_clk counter[7] / xci2_dff
x._302_ _008_ XC_I_clk counter[8] / xci2_dff
x._303_ _009_ XC_I_clk counter[9] / xci2_dff
x._304_ _010_ XC_I_clk counter[10] / xci2_dff
x._305_ _011_ XC_I_clk counter[11] / xci2_dff
x._306_ _012_ XC_I_clk counter[12] / xci2_dff
x._307_ _013_ XC_I_clk counter[13] / xci2_dff
x._308_ _014_ XC_I_clk counter[14] / xci2_dff
x._309_ _015_ XC_I_clk counter[15] / xci2_dff
x._310_ _016_ XC_I_clk counter[16] / xci2_dff
x._311_ _017_ XC_I_clk counter[17] / xci2_dff
x._312_ _018_ XC_I_clk counter[18] / xci2_dff
x._313_ _019_ XC_I_clk counter[19] / xci2_dff
x._314_ _020_ XC_I_clk counter[20] / xci2_dff
x._315_ _021_ XC_I_clk counter[21] / xci2_dff
x._316_ _022_ XC_I_clk counter[22] / xci2_dff
x._317_ _023_ XC_I_clk counter[23] / xci2_dff
x._318_ _024_ XC_I_clk counter[24] / xci2_dff
x._319_ _025_ XC_I_clk counter[25] / xci2_dff
x._320_ _026_ XC_I_clk XC_O_led[0] / xci2_dff
x._321_ _027_ XC_I_clk XC_O_led[1] / xci2_dff
x._322_ _028_ XC_I_clk XC_O_led[2] / xci2_dff
x._323_ _029_ XC_I_clk XC_O_led[3] / xci2_dff
x._324_ _030_ XC_I_clk XC_O_led[4] / xci2_dff
x._325_ _031_ XC_I_clk XC_O_led[5] / xci2_dff
x._326_ _032_ XC_I_clk XC_O_led[6] / xci2_dff
x._327_ _033_ XC_I_clk XC_O_led[7] / xci2_dff
x._328_ _034_ XC_I_clk num[0] / xci2_dff
x._329_ _035_ XC_I_clk num[1] / xci2_dff
x._330_ _036_ XC_I_clk num[2] / xci2_dff
x._331_ _037_ XC_I_clk num[3] / xci2_dff
XCI2_DEV_OE / xci2_devoe
vGND GND 0 0
vVDD VDD 0 1.8
.ENDS

