//	Data:      24/14/11 10:16:01
//	Program:   xcore.exe

simulator lang=spectre
global 0 GndIO UccFIO3 gnd! UCCLAB! vdd! ELLR15_30_0_ GND ClockBS AGND GndA vddh! UccA AVDD
include "D:/xcad/src/spectre/models/SOI180_6M_1.8V/mosfet.scs" section=typ
include "D:/xcad/src/spectre/models/SOI180_6M_1.8V/cap.scs" section=ctyp
include "D:/xcad/src/spectre/models/SOI180_6M_1.8V/diode.scs" section=typ
include "D:/xcad/src/spectre/models/SOI180_6M_1.8V/res.scs" section=typ
include "D:/xcad/src/spectre/models/SOI180_6M_1.8V/veriloga.scs" section=typ
include "D:/xcad/src/spectre/spectre_soi180.opts"
include "D:/xcad/src/spectre/XCI2.cdl"
otemp options temp = 25
parameters spowera = 0

simulator lang=spice

x.I1823.I24 net8281_5_ m_lab40708_4_ LongBus_35_10_ buftd52C_UCCLAB
x.I1823.I31 net8281_2_ m_lab40708_10_ LongBus_35_13_ buftd52C_UCCLAB
x.I1823.I27 net8281_1_ m_lab40708_12_ LongBus_35_14_ buftd52C_UCCLAB
x.I1819.I20 net8290_6_ m_lab40707_2_ LongBus_33_9_ buftd52C_UCCLAB
x.I1819.I28 net8290_0_ m_lab40707_14_ LongBus_33_15_ buftd52C_UCCLAB
x.I1817.I62895 LongBus_30_0_ m_lab10806_41_ net8293_15_ buftd52C_UCCLAB
x.I1822.I40 net8302_11_ m_lab20810_48_ LongBus_37_4_ buftd52C_UCCLAB
x.I1822.I23 net8302_4_ m_lab40710_6_ LongBus_37_11_ buftd52C_UCCLAB
x.I1822.I1 net8302_15_ m_lab20810_40_ LongBus_37_0_ buftd52C_UCCLAB
x.I1818.I18 LongBus_31_8_ m_lab40706_1_ net8305_7_ buftd52C_UCCLAB
x.I1839.I19 LongBus_9_8_ m_lab40506_24_ LongBus_50_8_ buftd52C_UCCLAB
x.I1839.I1 LongBus_9_0_ m_lab30507_24_ LongBus_50_0_ buftd52C_UCCLAB
x.I1848.I1 LongBus_11_0_ m_lab30607_24_ LongBus_48_0_ buftd52C_UCCLAB
x.I1849.I19 LongBus_10_8_ m_lab20606_24_ LongBus_49_8_ buftd52C_UCCLAB
x.I1849.I1 LongBus_10_0_ m_lab10607_24_ LongBus_49_0_ buftd52C_UCCLAB
x.I3750.I62895 net8314_15_ m_lab10408_41_ LongBus_65_0_ buftd52C_UCCLAB
x.I3752.I25 net8308_5_ m_lab30309_5_ LongBus_63_10_ buftd52C_UCCLAB
x.I3752.I26 net8308_1_ m_lab30309_13_ LongBus_63_14_ buftd52C_UCCLAB
x.I3749.I41 net8281_11_ m_lab20408_49_ LongBus_64_4_ buftd52C_UCCLAB
x.I3749.I34 net8281_9_ m_lab20408_53_ LongBus_64_6_ buftd52C_UCCLAB
x.I3749.I33 net8281_3_ m_lab40308_9_ LongBus_64_12_ buftd52C_UCCLAB
x.I3749.I7 net8281_13_ m_lab20408_45_ LongBus_64_2_ buftd52C_UCCLAB
x.I3749.I62895 net8281_15_ m_lab20408_41_ LongBus_64_0_ buftd52C_UCCLAB
x.I3590.I13 net10330_2_ net10329_2_ I3590_net069 I3590_net066 m_lab40506_8_ m_lab40506_5_ I3590_net78 mux4p_0_UCCLAB
x.I3590.I17 net10305_1_ net10255_1_ m_lab40506_13_ I3590_net066 mux2_1_clk_P_UCCLAB
x.I3590.I5 I3590_net78 m_lab40506_1_ net10262_1_ invtd56_pd_clk_UCCLAB
x.I3688.I9 I3688_net35 m_lab20506_50_ net10244_3_ invtd56_pd_clk_UCCLAB
x.I3688.I5 I3688_net43 m_lab20506_52_ net10244_1_ invtd56_pd_clk_UCCLAB
x.I3688.I0 I3688_net47 m_lab20506_53_ net10244_0_ invtd56_pd_clk_UCCLAB
x.I3688.I4 net10262_1_ net10247_1_ m_lab20506_48_ I3688_net43 mux2p_2_UCCLAB
x.I3688.I2 net10262_3_ net10247_1_ m_lab20506_46_ I3688_net35 mux2p_2_UCCLAB
x.I3688.I6 net10262_0_ net10247_0_ m_lab20506_49_ I3688_net47 mux2p_2_UCCLAB
x.I3686.I9 I3686_net35 m_lab20906_50_ net10252_3_ invtd56_pd_clk_UCCLAB
x.I3686.I7 I3686_net39 m_lab20906_51_ net10252_2_ invtd56_pd_clk_UCCLAB
x.I3686.I3 net10262_2_ net10255_0_ m_lab20906_47_ I3686_net39 mux2p_2_UCCLAB
x.I3686.I2 net10262_3_ net10255_1_ m_lab20906_46_ I3686_net35 mux2p_2_UCCLAB
x.I3637.I4 net10252_3_ m_lab20808_36_ net20148_3_ invtd56_pd_clk_UCCLAB
x.I3637.I3 net10252_2_ m_lab20808_37_ net20148_2_ invtd56_pd_clk_UCCLAB
x.I3642.I4 net10244_3_ m_lab20608_36_ GCLK_s4_0_ invtd56_pd_clk_UCCLAB
x.I3642.I2 net10244_1_ m_lab20608_38_ GCLK_s4_2_ invtd56_pd_clk_UCCLAB
x.I3642.I1 net10244_0_ m_lab20608_39_ GCLK_s4_3_ invtd56_pd_clk_UCCLAB
x.IIO26.I7.I16 LongBus_40_0_ LongBus_41_8_ IIO26_m_151_ IIO26_I7_net197 mux2i_P_UCCLAB
x.IIO26.I7.I29 IIO26_I7_net209 IIO26_I7_net0214 ClockBS ELLR15_30_0_ ELLR8_0_6_ LLR0_0_0_ IIO26_I7_net0203 GndIO IO_63_ gnd! LongBus_40_8_ LongBus_40_7_ IIO26_I7_net197 net21661 net8854 IIO26_net312 net9186 UCCLAB! UccFIO3 net8846 IIO26_m_183_ IIO26_m_14_ IIO26_m_184_ IIO26_m_126_ IIO26_m_111_ IIO26_m_103_ IIO26_m_63_ IIO26_m_79_ IIO26_m_135_ IIO26_m_271_ IIO26_m_247_ IIO26_m_71_ IIO26_m_47_ IIO26_m_87_ IIO26_m_127_ IIO26_m_160_ IIO26_I7_net0278 net8847 net8830 IO_cell_JTAG_v3_UCCLAB
x.IIO26.I6.I16 LongBus_40_1_ LongBus_41_9_ IIO26_m_150_ IIO26_I6_net197 mux2i_P_UCCLAB
x.IIO26.I6.I29 IIO26_I6_net209 IIO26_I6_net0214 ClockBS ELLR15_30_0_ ELLR9_0_6_ LLR1_0_0_ IIO26_I6_net0203 GndIO IO_62_ gnd! LongBus_40_9_ LongBus_40_7_ IIO26_I6_net197 net21661 net8854 IIO26_net362 IIO26_net312 UCCLAB! UccFIO3 net8846 IIO26_m_182_ IIO26_m_12_ IIO26_m_184_ IIO26_m_124_ IIO26_m_110_ IIO26_m_102_ IIO26_m_62_ IIO26_m_78_ IIO26_m_134_ IIO26_m_270_ IIO26_m_246_ IIO26_m_70_ IIO26_m_46_ IIO26_m_86_ IIO26_m_125_ IIO26_m_160_ IIO26_I6_net0278 net8847 net8830 IO_cell_JTAG_v3_UCCLAB
x.IIO26.I5.I16 LongBus_40_2_ LongBus_41_10_ IIO26_m_149_ IIO26_I5_net197 mux2i_P_UCCLAB
x.IIO26.I5.I29 IIO26_I5_net209 IIO26_I5_net0214 ClockBS ELLR15_30_0_ ELLR10_0_6_ LLR2_0_0_ IIO26_I5_net0203 GndIO IO_61_ gnd! LongBus_40_10_ LongBus_40_7_ IIO26_I5_net197 net21661 net8854 IIO26_net412 IIO26_net362 UCCLAB! UccFIO3 net8846 IIO26_m_181_ IIO26_m_10_ IIO26_m_184_ IIO26_m_122_ IIO26_m_109_ IIO26_m_101_ IIO26_m_61_ IIO26_m_77_ IIO26_m_133_ IIO26_m_269_ IIO26_m_245_ IIO26_m_69_ IIO26_m_45_ IIO26_m_85_ IIO26_m_123_ IIO26_m_160_ IIO26_I5_net0278 net8847 net8830 IO_cell_JTAG_v3_UCCLAB
x.IIO26.I4.I16 LongBus_40_3_ LongBus_41_11_ IIO26_m_148_ IIO26_I4_net197 mux2i_P_UCCLAB
x.IIO26.I4.I29 IIO26_I4_net209 IIO26_I4_net0214 ClockBS ELLR15_30_0_ ELLR11_0_6_ LLR3_0_0_ IIO26_I4_net0203 GndIO IO_60_ gnd! LongBus_40_11_ LongBus_40_7_ IIO26_I4_net197 net21661 net8854 IIO26_net462 IIO26_net412 UCCLAB! UccFIO3 net8846 IIO26_m_180_ IIO26_m_8_ IIO26_m_184_ IIO26_m_120_ IIO26_m_108_ IIO26_m_100_ IIO26_m_60_ IIO26_m_76_ IIO26_m_132_ IIO26_m_268_ IIO26_m_244_ IIO26_m_68_ IIO26_m_44_ IIO26_m_84_ IIO26_m_121_ IIO26_m_160_ IIO26_I4_net0278 net8847 net8830 IO_cell_JTAG_v3_UCCLAB
x.IIO26.I3.I16 LongBus_40_4_ LongBus_41_12_ IIO26_m_147_ IIO26_I3_net197 mux2i_P_UCCLAB
x.IIO26.I3.I29 IIO26_I3_net209 IIO26_I3_net0214 ClockBS ELLR15_30_0_ ELLR12_0_6_ LLR4_0_0_ IIO26_I3_net0203 GndIO IO_59_ gnd! LongBus_40_12_ LongBus_40_7_ IIO26_I3_net197 net21661 net8854 IIO26_net512 IIO26_net462 UCCLAB! UccFIO3 net8846 IIO26_m_179_ IIO26_m_6_ IIO26_m_184_ IIO26_m_118_ IIO26_m_107_ IIO26_m_99_ IIO26_m_59_ IIO26_m_75_ IIO26_m_131_ IIO26_m_267_ IIO26_m_243_ IIO26_m_67_ IIO26_m_43_ IIO26_m_83_ IIO26_m_119_ IIO26_m_160_ IIO26_I3_net0278 net8847 net8830 IO_cell_JTAG_v3_UCCLAB
x.IIO26.I2.I16 LongBus_40_5_ LongBus_41_13_ IIO26_m_146_ IIO26_I2_net197 mux2i_P_UCCLAB
x.IIO26.I2.I29 IIO26_I2_net209 IIO26_I2_net0214 ClockBS ELLR15_30_0_ ELLR13_0_6_ LLR5_0_0_ IIO26_I2_net0203 GndIO IO_58_ gnd! LongBus_40_13_ LongBus_40_7_ IIO26_I2_net197 net21661 net8854 IIO26_net562 IIO26_net512 UCCLAB! UccFIO3 net8846 IIO26_m_178_ IIO26_m_4_ IIO26_m_184_ IIO26_m_116_ IIO26_m_106_ IIO26_m_98_ IIO26_m_58_ IIO26_m_74_ IIO26_m_130_ IIO26_m_266_ IIO26_m_242_ IIO26_m_66_ IIO26_m_42_ IIO26_m_82_ IIO26_m_117_ IIO26_m_160_ IIO26_I2_net0278 net8847 net8830 IO_cell_JTAG_v3_UCCLAB
x.IIO26.I1.I16 LongBus_40_6_ LongBus_41_14_ IIO26_m_145_ IIO26_I1_net197 mux2i_P_UCCLAB
x.IIO26.I1.I29 IIO26_I1_net209 IIO26_I1_net0214 ClockBS ELLR15_30_0_ ELLR14_0_6_ LLR6_0_0_ IIO26_I1_net0203 GndIO IO_57_ gnd! LongBus_40_14_ LongBus_40_7_ IIO26_I1_net197 net21661 net8854 IIO26_net612 IIO26_net562 UCCLAB! UccFIO3 net8846 IIO26_m_177_ IIO26_m_2_ IIO26_m_184_ IIO26_m_114_ IIO26_m_105_ IIO26_m_97_ IIO26_m_57_ IIO26_m_73_ IIO26_m_129_ IIO26_m_265_ IIO26_m_241_ IIO26_m_65_ IIO26_m_41_ IIO26_m_81_ IIO26_m_115_ IIO26_m_160_ IIO26_I1_net0278 net8847 net8830 IO_cell_JTAG_v3_UCCLAB
x.IIO26.I0.I16 LongBus_40_7_ LongBus_41_15_ IIO26_m_144_ IIO26_I0_net197 mux2i_P_UCCLAB
x.IIO26.I0.I29 IIO26_I0_net209 IIO26_I0_net0214 ClockBS ELLR15_30_0_ ELLR15_0_6_ LLR7_0_0_ IIO26_I0_net0203 GndIO IO_56_ gnd! LongBus_40_15_ LongBus_40_7_ IIO26_I0_net197 net21661 net8854 net8845 IIO26_net612 UCCLAB! UccFIO3 net8846 IIO26_m_176_ IIO26_m_0_ IIO26_m_184_ IIO26_m_112_ IIO26_m_104_ IIO26_m_96_ IIO26_m_56_ IIO26_m_72_ IIO26_m_128_ IIO26_m_264_ IIO26_m_240_ IIO26_m_64_ IIO26_m_40_ IIO26_m_80_ IIO26_m_113_ IIO26_m_160_ IIO26_I0_net0278 net8847 net8830 IO_cell_JTAG_v3_UCCLAB
x.IIO21.I0.I26 IIO21_I0_net0153 IIO21_m_88_ LongBus_50_15_ gnd! UCCLAB! invtd52_AVDD
x.IIO21.I0.I25 IIO21_I0_net209 IIO21_I0_net0214 IIO21_m_152_ IIO21_I0_net0153 mux2i_P_UCCLAB
x.IIO21.I0.I29 IIO21_I0_net209 IIO21_I0_net0214 ClockBS ELLR15_30_0_ ELLR15_1_6_ LLR7_1_0_ IIO21_I0_net0203 GndIO IO_96_ gnd! LongBus_50_15_ LongBus_50_7_ IIO21_I0_net197 net21651 net8854 net8981 IIO21_net612 UCCLAB! UccFIO3 net8846 IIO21_m_176_ IIO21_m_0_ IIO21_m_184_ IIO21_m_112_ IIO21_m_104_ IIO21_m_96_ IIO21_m_56_ IIO21_m_72_ IIO21_m_128_ IIO21_m_264_ IIO21_m_240_ IIO21_m_64_ IIO21_m_40_ IIO21_m_80_ IIO21_m_113_ IIO21_m_160_ IIO21_I0_net0278 net8847 net8830 IO_cell_JTAG_v3_UCCLAB
x.IIO18.I7.I16 LongBus_56_0_ LongBus_57_8_ IIO18_m_151_ IIO18_I7_net197 mux2i_P_UCCLAB
x.IIO18.I7.I29 IIO18_I7_net209 IIO18_I7_net0214 ClockBS ELLR15_30_0_ ELLR8_22_6_ LLR0_22_0_ IIO18_I7_net0203 GndIO IO_127_ gnd! LongBus_56_8_ LongBus_56_7_ IIO18_I7_net197 net21681 net8854 IIO18_net312 net9050 UCCLAB! UccFIO3 net8846 IIO18_m_183_ IIO18_m_14_ IIO18_m_184_ IIO18_m_126_ IIO18_m_111_ IIO18_m_103_ IIO18_m_63_ IIO18_m_79_ IIO18_m_135_ IIO18_m_271_ IIO18_m_247_ IIO18_m_71_ IIO18_m_47_ IIO18_m_87_ IIO18_m_127_ IIO18_m_160_ IIO18_I7_net0278 net8847 net8830 IO_cell_JTAG_v3_UCCLAB
x.IIO18.I5.I16 LongBus_56_2_ LongBus_57_10_ IIO18_m_149_ IIO18_I5_net197 mux2i_P_UCCLAB
x.IIO18.I5.I29 IIO18_I5_net209 IIO18_I5_net0214 ClockBS ELLR15_30_0_ ELLR10_22_6_ LLR2_22_0_ IIO18_I5_net0203 GndIO IO_125_ gnd! LongBus_56_10_ LongBus_56_7_ IIO18_I5_net197 net21681 net8854 IIO18_net412 IIO18_net362 UCCLAB! UccFIO3 net8846 IIO18_m_181_ IIO18_m_10_ IIO18_m_184_ IIO18_m_122_ IIO18_m_109_ IIO18_m_101_ IIO18_m_61_ IIO18_m_77_ IIO18_m_133_ IIO18_m_269_ IIO18_m_245_ IIO18_m_69_ IIO18_m_45_ IIO18_m_85_ IIO18_m_123_ IIO18_m_160_ IIO18_I5_net0278 net8847 net8830 IO_cell_JTAG_v3_UCCLAB
x.IIO18.I3.I16 LongBus_56_4_ LongBus_57_12_ IIO18_m_147_ IIO18_I3_net197 mux2i_P_UCCLAB
x.IIO18.I3.I29 IIO18_I3_net209 IIO18_I3_net0214 ClockBS ELLR15_30_0_ ELLR12_22_6_ LLR4_22_0_ IIO18_I3_net0203 GndIO IO_123_ gnd! LongBus_56_12_ LongBus_56_7_ IIO18_I3_net197 net21681 net8854 IIO18_net512 IIO18_net462 UCCLAB! UccFIO3 net8846 IIO18_m_179_ IIO18_m_6_ IIO18_m_184_ IIO18_m_118_ IIO18_m_107_ IIO18_m_99_ IIO18_m_59_ IIO18_m_75_ IIO18_m_131_ IIO18_m_267_ IIO18_m_243_ IIO18_m_67_ IIO18_m_43_ IIO18_m_83_ IIO18_m_119_ IIO18_m_160_ IIO18_I3_net0278 net8847 net8830 IO_cell_JTAG_v3_UCCLAB
x.IIO18.I1.I16 LongBus_56_6_ LongBus_57_14_ IIO18_m_145_ IIO18_I1_net197 mux2i_P_UCCLAB
x.IIO18.I1.I29 IIO18_I1_net209 IIO18_I1_net0214 ClockBS ELLR15_30_0_ ELLR14_22_6_ LLR6_22_0_ IIO18_I1_net0203 GndIO IO_121_ gnd! LongBus_56_14_ LongBus_56_7_ IIO18_I1_net197 net21681 net8854 IIO18_net612 IIO18_net562 UCCLAB! UccFIO3 net8846 IIO18_m_177_ IIO18_m_2_ IIO18_m_184_ IIO18_m_114_ IIO18_m_105_ IIO18_m_97_ IIO18_m_57_ IIO18_m_73_ IIO18_m_129_ IIO18_m_265_ IIO18_m_241_ IIO18_m_65_ IIO18_m_41_ IIO18_m_81_ IIO18_m_115_ IIO18_m_160_ IIO18_I1_net0278 net8847 net8830 IO_cell_JTAG_v3_UCCLAB
x.IIO19.I7.I16 LongBus_54_0_ LongBus_55_8_ IIO19_m_151_ IIO19_I7_net197 mux2i_P_UCCLAB
x.IIO19.I7.I29 IIO19_I7_net209 IIO19_I7_net0214 ClockBS ELLR15_30_0_ ELLR8_21_6_ LLR0_21_0_ IIO19_I7_net0203 GndIO IO_119_ gnd! LongBus_54_8_ LongBus_54_7_ IIO19_I7_net197 net21621 net8854 IIO19_net312 net9152 UCCLAB! UccFIO3 net8846 IIO19_m_183_ IIO19_m_14_ IIO19_m_184_ IIO19_m_126_ IIO19_m_111_ IIO19_m_103_ IIO19_m_63_ IIO19_m_79_ IIO19_m_135_ IIO19_m_271_ IIO19_m_247_ IIO19_m_71_ IIO19_m_47_ IIO19_m_87_ IIO19_m_127_ IIO19_m_160_ IIO19_I7_net0278 net8847 net8830 IO_cell_JTAG_v3_UCCLAB
x.IIO19.I5.I16 LongBus_54_2_ LongBus_55_10_ IIO19_m_149_ IIO19_I5_net197 mux2i_P_UCCLAB
x.IIO19.I5.I29 IIO19_I5_net209 IIO19_I5_net0214 ClockBS ELLR15_30_0_ ELLR10_21_6_ LLR2_21_0_ IIO19_I5_net0203 GndIO IO_117_ gnd! LongBus_54_10_ LongBus_54_7_ IIO19_I5_net197 net21621 net8854 IIO19_net412 IIO19_net362 UCCLAB! UccFIO3 net8846 IIO19_m_181_ IIO19_m_10_ IIO19_m_184_ IIO19_m_122_ IIO19_m_109_ IIO19_m_101_ IIO19_m_61_ IIO19_m_77_ IIO19_m_133_ IIO19_m_269_ IIO19_m_245_ IIO19_m_69_ IIO19_m_45_ IIO19_m_85_ IIO19_m_123_ IIO19_m_160_ IIO19_I5_net0278 net8847 net8830 IO_cell_JTAG_v3_UCCLAB
x.IIO19.I3.I16 LongBus_54_4_ LongBus_55_12_ IIO19_m_147_ IIO19_I3_net197 mux2i_P_UCCLAB
x.IIO19.I3.I29 IIO19_I3_net209 IIO19_I3_net0214 ClockBS ELLR15_30_0_ ELLR12_21_6_ LLR4_21_0_ IIO19_I3_net0203 GndIO IO_115_ gnd! LongBus_54_12_ LongBus_54_7_ IIO19_I3_net197 net21621 net8854 IIO19_net512 IIO19_net462 UCCLAB! UccFIO3 net8846 IIO19_m_179_ IIO19_m_6_ IIO19_m_184_ IIO19_m_118_ IIO19_m_107_ IIO19_m_99_ IIO19_m_59_ IIO19_m_75_ IIO19_m_131_ IIO19_m_267_ IIO19_m_243_ IIO19_m_67_ IIO19_m_43_ IIO19_m_83_ IIO19_m_119_ IIO19_m_160_ IIO19_I3_net0278 net8847 net8830 IO_cell_JTAG_v3_UCCLAB
x.IIO19.I1.I16 LongBus_54_6_ LongBus_55_14_ IIO19_m_145_ IIO19_I1_net197 mux2i_P_UCCLAB
x.IIO19.I1.I29 IIO19_I1_net209 IIO19_I1_net0214 ClockBS ELLR15_30_0_ ELLR14_21_6_ LLR6_21_0_ IIO19_I1_net0203 GndIO IO_113_ gnd! LongBus_54_14_ LongBus_54_7_ IIO19_I1_net197 net21621 net8854 IIO19_net612 IIO19_net562 UCCLAB! UccFIO3 net8846 IIO19_m_177_ IIO19_m_2_ IIO19_m_184_ IIO19_m_114_ IIO19_m_105_ IIO19_m_97_ IIO19_m_57_ IIO19_m_73_ IIO19_m_129_ IIO19_m_265_ IIO19_m_241_ IIO19_m_65_ IIO19_m_41_ IIO19_m_81_ IIO19_m_115_ IIO19_m_160_ IIO19_I1_net0278 net8847 net8830 IO_cell_JTAG_v3_UCCLAB
x.ILAB0504.I4775.I62895 net8293_15_ ILAB0504_md0_low_1_ LongBus_9_0_ buftd52_UCCLAB
x.ILAB0504.I4801.I18 net8305_7_ ILAB0504_md17_low_17_ LongBus_9_8_ buftd52_UCCLAB
x.ILAB0604.I4773.I18 net8305_7_ ILAB0604_mu17_low_17_ LongBus_10_8_ buftd52_UCCLAB
x.ILAB0604.I4775.I62895 net8293_15_ ILAB0604_md0_low_1_ LongBus_11_0_ buftd52_UCCLAB
x.ILAB0604.I4772.I62895 net8293_15_ ILAB0604_mu0_low_1_ LongBus_10_0_ buftd52_UCCLAB
x.ILAB1004.I5605.I3 ILAB1004_I5605_net33 ILAB1004_mc24_2_ ILAB1004_Clk_int_2_ invd16_seth_UCCLAB
x.ILAB1004.I5605.I2 ILAB1004_net27128 ILAB1004_net015238 ILAB1004_net015240 ILAB1004_I5605_net33 mux2p_2_UCCLAB
x.ILAB1004.I5366.I6 ILAB1004_I5366_net0119 ILAB1004_mc49_2_ net16523_1_ invtd56_clk_UCCLAB
x.ILAB1004.I5366.I82 ILAB1004_Clk_int_0_ ILAB1004_Clk_int_2_ ILAB1004_mc56_2_ ILAB1004_I5366_net0119 mux2p_2_UCCLAB
x.ILAB1004.I178 LLL15_PLL1_0_ ILAB1004_net27000 ILAB1004_net015238 buftd4_UCCLAB
x.ILAB1004.I2123 LongBus_31_8_ ILAB1004_mr16_22_ ILAB1004_net20755 switch_ds
x.ILAB1004.ILE1616.Is58 ILAB1004_ILE1616_B ILAB1004_ILE1616_m_58_ ILAB1004_ILE1616_net01328 switch_ds
x.ILAB1004.ILE1616.Is62 ILAB1004_ILE1616_B ILAB1004_ILE1616_m_62_ ILAB1004_ILE1616_net01342 switch1_sd
x.ILAB1004.ILE1616.I666 ILAB1004_ILE1616_net2680 LLL15_PLL1_0_ inv_8_UCCLAB
x.ILAB1004.ILE1616.Is63 ILAB1004_ILE1616_m_63_ ILAB1004_ILE1616_net2680 ILAB1004_ILE1616_net0541 ILAB1004_ILE1616_net01328 ILAB1004_ILE1616_nm_63_ switch2
x.ILAB1004.ILE1616.I713 ILAB1004_net20755 ILAB1004_ILE1616_net01342 inv_4_UCCLAB
x.ILAB0505.I5605.I6 ILAB0505_I5605_net21 ILAB0505_mc26_2_ ILAB0505_Clk_int_0_ invd16_seth_UCCLAB
x.ILAB0505.I5605.I5 ILAB0505_I5605_net25 ILAB0505_mc25_2_ ILAB0505_Clk_int_1_ invd16_seth_UCCLAB
x.ILAB0505.I5605.I1 ILAB0505_I5605_net29 ILAB0505_mc23_2_ ILAB0505_Clk_int_3_ invd16_seth_UCCLAB
x.ILAB0505.I5605.I3 ILAB0505_I5605_net33 ILAB0505_mc24_2_ ILAB0505_Clk_int_2_ invd16_seth_UCCLAB
x.ILAB0505.I5605.I7 ILAB0505_net027160 ILAB0505_net27185 ILAB0505_net015232 ILAB0505_I5605_net21 mux2p_2_UCCLAB
x.ILAB0505.I5605.I4 ILAB0505_net027166 ILAB0505_net27191 ILAB0505_net015099 ILAB0505_I5605_net25 mux2p_2_UCCLAB
x.ILAB0505.I5605.I0 ILAB0505_net27188 ILAB0505_net015234 ILAB0505_net26879 ILAB0505_I5605_net29 mux2p_2_UCCLAB
x.ILAB0505.I5605.I2 ILAB0505_net27128 ILAB0505_net015238 ILAB0505_net015240 ILAB0505_I5605_net33 mux2p_2_UCCLAB
x.ILAB0505.I5366.I8 ILAB0505_I5366_net0122 ILAB0505_mc55_2_ net10221_0_ invtd56_clk_UCCLAB
x.ILAB0505.I5366.I83 ILAB0505_Clk_int_1_ ILAB0505_Clk_int_3_ ILAB0505_mc54_2_ ILAB0505_I5366_net0122 mux2p_2_UCCLAB
x.ILAB0505.I5366.I74 ILAB0505_I5366_net0114 ILAB0505_net15299_3_ invd52_UCCLAB
x.ILAB0505.I5366.I76 ILAB0505_I5366_net0106 ILAB0505_net15299_1_ invd52_UCCLAB
x.ILAB0505.I5366.I77 ILAB0505_I5366_net0102 ILAB0505_net15299_0_ invd52_UCCLAB
x.ILAB0505.I5366.I80 ILAB0505_Clk_int_2_ ILAB0505_I5366_net0104 ILAB0505_mc52_2_ ILAB0505_I5366_net0106 mux2d1i_1_P_UCCLAB
x.ILAB0505.I5366.I81 ILAB0505_Clk_int_3_ ILAB0505_I5366_net0111 ILAB0505_mc53_2_ ILAB0505_I5366_net0102 mux2d1i_1_P_UCCLAB
x.ILAB0505.I5366.I78 ILAB0505_Clk_int_0_ ILAB0505_I5366_net0124 ILAB0505_mc50_2_ ILAB0505_I5366_net0114 mux2d1i_1_P_UCCLAB
x.ILAB0505.I5591.I3 ILAB0505_net15299_3_ ILAB0505_Clk_LAB_0_ invd32_UCCLAB
x.ILAB0505.I5591.I1 ILAB0505_net15299_1_ ILAB0505_Clk_LAB_2_ invd32_UCCLAB
x.ILAB0505.I5591.I0 ILAB0505_net15299_0_ ILAB0505_Clk_LAB_3_ invd32_UCCLAB
x.ILAB0505.I183 ILAB0505_net20066 ILAB0505_net26986 ILAB0505_net27191 buftd4_UCCLAB
x.ILAB0505.I189 ILAB0505_net20111 ILAB0505_net26980 ILAB0505_net27185 buftd4_UCCLAB
x.ILAB0505.I196 ILAB0505_net24386 ILAB0505_net26958 ILAB0505_net015234 buftd4_UCCLAB
x.ILAB0505.I202 ILAB0505_net16016 ILAB0505_net26952 ILAB0505_net015238 buftd4_UCCLAB
x.ILAB0505.I4466 ILAB0505_net38005 ILAB0505_net27255 net8290_14_ buftid52C_UCCLAB
x.ILAB0505.I4385 ILAB0505_net20111 ILAB0505_net38886 buf4_12_UCCLAB
x.ILAB0505.I4369 net13670_1_ ILAB0505_net27361 buf4_12_UCCLAB
x.ILAB0505.I4204 ILAB0505_net27361 ILAB0505_mr2_50_ ILAB0505_net38005 switch1
x.ILAB0505.I3428 ILAB0505_net38886 ILAB0505_md5_51_ ILAB0505_net27495 switch1
x.ILAB0505.I4415 ILAB0505_net27495 ILAB0505_mc5_2_ LongBus_50_4_ buftd52C_UCCLAB
x.ILAB0505.I4801.I1 LongBus_50_0_ ILAB0505_md17_low_0_ net8290_15_ buftd52_UCCLAB
x.ILAB0505.I2745 LongBus_50_8_ ILAB0505_md10_22_ net14072_1_ switch_ds
x.ILAB0505.I362 net8290_15_ ILAB0505_mr13_46_ ILAB0505_net20935 switch_ds
x.ILAB0505.ILE1416.Is43 ILAB0505_ILE1416_B ILAB0505_ILE1416_m_43_ ILAB0505_ILE1416_net2743 switch_ds
x.ILAB0505.ILE1416.Is44 ILAB0505_ILE1416_C ILAB0505_ILE1416_m_45_ ILAB0505_ILE1416_net2746 switch_ds
x.ILAB0505.ILE1416.Is41 ILAB0505_ILE1416_A ILAB0505_ILE1416_m_41_ ILAB0505_ILE1416_net2749 switch_ds
x.ILAB0505.ILE1416.Is60 ILAB0505_ILE1416_C ILAB0505_ILE1416_m_60_ ILAB0505_ILE1416_net01328 switch_ds
x.ILAB0505.ILE1416.Is72 ILAB0505_net18776 ILAB0505_ILE1416_m_72_ ILAB0505_net19841 switch_sd
x.ILAB0505.ILE1416.Is106 ILAB0505_ILE1416_B ILAB0505_ILE1416_m_106_ ILAB0505_net17910 switch_sd
x.ILAB0505.ILE1416.Is16 ILAB0505_ILE1416_A ILAB0505_ILE1416_m_16_ net13709_1_ switch_sd
x.ILAB0505.ILE1416.I666 ILAB0505_ILE1416_net2680 net13670_1_ inv_8_UCCLAB
x.ILAB0505.ILE1416.ILE1 ILAB0505_ILE1416_net2749 ILAB0505_ILE1416_net2743 ILAB0505_ILE1416_net2746 ILAB0505_ILE1416_net2656 ILAB0505_ILE1416_net0541 ILAB0505_ILE1416_m_109_ ILAB0505_ILE1416_m_107_ ILAB0505_ILE1416_m_105_ ILAB0505_ILE1416_m_85_ ILAB0505_ILE1416_m_55_ ILAB0505_ILE1416_m_79_ ILAB0505_ILE1416_m_95_ ILAB0505_ILE1416_m_99_ ILAB0505_ILE1416_m_71_ ILAB0505_ILE1416_m_83_ ILAB0505_ILE1416_nm_75_ ILAB0505_ILE1416_nm_77_ ILAB0505_ILE1416_nm_97_ ILAB0505_ILE1416_nm_34_ ILAB0505_ILE1416_nm_101_ ILAB0505_ILE1416_nm_55_ ILAB0505_ILE1416_nm_79_ ILAB0505_ILE1416_nm_95_ ILAB0505_ILE1416_nm_71_ LE_4p0
x.ILAB0505.ILE1416.Ivi7 ILAB0505_ILE1416_net1860 ILAB0505_ILE1416_net1859 ILAB0505_net17914 sw_b_v2_inv_UCCLAB
x.ILAB0505.ILE1416.Is119 ILAB0505_ILE1416_m_119_ ILAB0505_ILE1416_net1859 net14002_1_ ILAB0505_ILE1416_net2656 ILAB0505_ILE1416_nm_119_ switch2
x.ILAB0505.ILE1416.Is63 ILAB0505_ILE1416_m_63_ ILAB0505_ILE1416_net2680 ILAB0505_ILE1416_net0541 ILAB0505_ILE1416_net01328 ILAB0505_ILE1416_nm_63_ switch2
x.ILAB0505.ILE1416.Is12 ILAB0505_ILE1416_C ILAB0505_ILE1416_m_12_ ILAB0505_net19372 switch
x.ILAB0505.ILE1416.Is13 ILAB0505_ILE1416_C ILAB0505_ILE1416_m_13_ net13709_0_ switch
x.ILAB0505.ILE1409.Is35 net14030_1_ ILAB0505_ILE1409_m_35_ ILAB0505_net18067 switch
x.ILAB0505.ILE1413.Is139 ILAB0505_ILE1413_net2743 ILAB0505_ILE1413_m_139_ ILAB0505_Clk_LAB_3_ switch_sd_clk3
x.ILAB0505.ILE1413.Is44 ILAB0505_ILE1413_C ILAB0505_ILE1413_m_45_ ILAB0505_ILE1413_net2746 switch_ds
x.ILAB0505.ILE1413.Is41 ILAB0505_ILE1413_A ILAB0505_ILE1413_m_41_ ILAB0505_ILE1413_net2749 switch_ds
x.ILAB0505.ILE1413.Is54 ILAB0505_ILE1413_A ILAB0505_ILE1413_m_54_ ILAB0505_ILE1413_net01345 switch1_sd
x.ILAB0505.ILE1413.Is70 ILAB0505_ILE1413_C ILAB0505_ILE1413_m_70_ ILAB0505_ILE1413_net01339 switch1_sd
x.ILAB0505.ILE1413.ILE1 ILAB0505_ILE1413_net2749 ILAB0505_ILE1413_net2743 ILAB0505_ILE1413_net2746 ILAB0505_ILE1413_net2656 ILAB0505_ILE1413_net0541 ILAB0505_ILE1413_m_109_ ILAB0505_ILE1413_m_107_ ILAB0505_ILE1413_m_105_ ILAB0505_ILE1413_m_85_ ILAB0505_ILE1413_m_55_ ILAB0505_ILE1413_m_79_ ILAB0505_ILE1413_m_95_ ILAB0505_ILE1413_m_99_ ILAB0505_ILE1413_m_71_ ILAB0505_ILE1413_m_83_ ILAB0505_ILE1413_nm_75_ ILAB0505_ILE1413_nm_77_ ILAB0505_ILE1413_nm_97_ ILAB0505_ILE1413_nm_34_ ILAB0505_ILE1413_nm_101_ ILAB0505_ILE1413_nm_55_ ILAB0505_ILE1413_nm_79_ ILAB0505_ILE1413_nm_95_ ILAB0505_ILE1413_nm_71_ LE_4p0
x.ILAB0505.ILE1413.Ihi7 ILAB0505_ILE1413_net1886 ILAB0505_ILE1413_net1844 ILAB0505_net18067 sw_b_v2_inv_UCCLAB
x.ILAB0505.ILE1413.Ivi7 ILAB0505_ILE1413_net1860 ILAB0505_ILE1413_net1859 ILAB0505_net18364 sw_b_v2_inv_UCCLAB
x.ILAB0505.ILE1413.Is31 ILAB0505_ILE1413_m_31_ ILAB0505_ILE1413_net1844 net13709_0_ ILAB0505_ILE1413_net2656 ILAB0505_ILE1413_nm_31_ switch2
x.ILAB0505.ILE1413.Is119 ILAB0505_ILE1413_m_119_ ILAB0505_ILE1413_net1859 net14014_1_ ILAB0505_ILE1413_net2656 ILAB0505_ILE1413_nm_119_ switch2
x.ILAB0505.ILE1413.Is35 net14014_1_ ILAB0505_ILE1413_m_35_ net13709_0_ switch
x.ILAB0505.ILE1413.I714 ILAB0505_net18326 ILAB0505_ILE1413_net01345 inv_4_UCCLAB
x.ILAB0505.ILE1413.I715 ILAB0505_net18323 ILAB0505_ILE1413_net01339 inv_4_UCCLAB
x.ILAB0505.ILE1516.Is43 ILAB0505_ILE1516_B ILAB0505_ILE1516_m_43_ ILAB0505_ILE1516_net2743 switch_ds
x.ILAB0505.ILE1516.Is44 ILAB0505_ILE1516_C ILAB0505_ILE1516_m_45_ ILAB0505_ILE1516_net2746 switch_ds
x.ILAB0505.ILE1516.Is41 ILAB0505_ILE1516_A ILAB0505_ILE1516_m_41_ ILAB0505_ILE1516_net2749 switch_ds
x.ILAB0505.ILE1516.Is20 ILAB0505_ILE1516_C ILAB0505_ILE1516_m_20_ net13705_1_ switch_sd
x.ILAB0505.ILE1516.Is19 ILAB0505_ILE1516_B ILAB0505_ILE1516_m_19_ net13705_3_ switch_sd
x.ILAB0505.ILE1516.Is54 ILAB0505_ILE1516_A ILAB0505_ILE1516_m_54_ ILAB0505_ILE1516_net01345 switch1_sd
x.ILAB0505.ILE1516.I666 ILAB0505_ILE1516_net2680 net13669_1_ inv_8_UCCLAB
x.ILAB0505.ILE1516.ILE1 ILAB0505_ILE1516_net2749 ILAB0505_ILE1516_net2743 ILAB0505_ILE1516_net2746 ILAB0505_ILE1516_net2656 ILAB0505_ILE1516_net0541 ILAB0505_ILE1516_m_109_ ILAB0505_ILE1516_m_107_ ILAB0505_ILE1516_m_105_ ILAB0505_ILE1516_m_85_ ILAB0505_ILE1516_m_55_ ILAB0505_ILE1516_m_79_ ILAB0505_ILE1516_m_95_ ILAB0505_ILE1516_m_99_ ILAB0505_ILE1516_m_71_ ILAB0505_ILE1516_m_83_ ILAB0505_ILE1516_nm_75_ ILAB0505_ILE1516_nm_77_ ILAB0505_ILE1516_nm_97_ ILAB0505_ILE1516_nm_34_ ILAB0505_ILE1516_nm_101_ ILAB0505_ILE1516_nm_55_ ILAB0505_ILE1516_nm_79_ ILAB0505_ILE1516_nm_95_ ILAB0505_ILE1516_nm_71_ LE_4p0
x.ILAB0505.ILE1516.Ihi7 ILAB0505_ILE1516_net1886 ILAB0505_ILE1516_net1844 ILAB0505_net19642 sw_b_v2_inv_UCCLAB
x.ILAB0505.ILE1516.Is31 ILAB0505_ILE1516_m_31_ ILAB0505_ILE1516_net1844 net13705_6_ ILAB0505_ILE1516_net2656 ILAB0505_ILE1516_nm_31_ switch2
x.ILAB0505.ILE1516.Is63 ILAB0505_ILE1516_m_63_ ILAB0505_ILE1516_net2680 ILAB0505_ILE1516_net0541 ILAB0505_ILE1516_net01328 ILAB0505_ILE1516_nm_63_ switch2
x.ILAB0505.ILE1516.Is48 ILAB0505_net20790 ILAB0505_ILE1516_m_48_ net13705_6_ switch
x.ILAB0505.ILE1516.Is37 net14002_3_ ILAB0505_ILE1516_m_37_ net13705_5_ switch
x.ILAB0505.ILE1516.I714 ILAB0505_net18776 ILAB0505_ILE1516_net01345 inv_4_UCCLAB
x.ILAB0505.ILE1513.Is141 ILAB0505_ILE1513_net2746 ILAB0505_ILE1513_m_141_ ILAB0505_Clk_LAB_3_ switch_sd_clk3
x.ILAB0505.ILE1513.Is43 ILAB0505_ILE1513_B ILAB0505_ILE1513_m_43_ ILAB0505_ILE1513_net2743 switch_ds
x.ILAB0505.ILE1513.Is41 ILAB0505_ILE1513_A ILAB0505_ILE1513_m_41_ ILAB0505_ILE1513_net2749 switch_ds
x.ILAB0505.ILE1513.Is32 ILAB0505_ILE1513_A ILAB0505_ILE1513_m_40_ ILAB0505_net19644 switch_sd
x.ILAB0505.ILE1513.ILE1 ILAB0505_ILE1513_net2749 ILAB0505_ILE1513_net2743 ILAB0505_ILE1513_net2746 ILAB0505_ILE1513_net2656 ILAB0505_ILE1513_net0541 ILAB0505_ILE1513_m_109_ ILAB0505_ILE1513_m_107_ ILAB0505_ILE1513_m_105_ ILAB0505_ILE1513_m_85_ ILAB0505_ILE1513_m_55_ ILAB0505_ILE1513_m_79_ ILAB0505_ILE1513_m_95_ ILAB0505_ILE1513_m_99_ ILAB0505_ILE1513_m_71_ ILAB0505_ILE1513_m_83_ ILAB0505_ILE1513_nm_75_ ILAB0505_ILE1513_nm_77_ ILAB0505_ILE1513_nm_97_ ILAB0505_ILE1513_nm_34_ ILAB0505_ILE1513_nm_101_ ILAB0505_ILE1513_nm_55_ ILAB0505_ILE1513_nm_79_ ILAB0505_ILE1513_nm_95_ ILAB0505_ILE1513_nm_71_ LE_4p0
x.ILAB0505.ILE1513.Iho1 ILAB0505_ILE1513_net1842 ILAB0505_ILE1513_net2685 net13705_0_ sw_b_v2_inv_UCCLAB
x.ILAB0505.ILE1513.Ivi5 ILAB0505_ILE1513_net1851 ILAB0505_ILE1513_net1850 ILAB0505_net19217 sw_b_v2_inv_UCCLAB
x.ILAB0505.ILE1513.Ivi7 ILAB0505_ILE1513_net1860 ILAB0505_ILE1513_net1859 ILAB0505_net19219 sw_b_v2_inv_UCCLAB
x.ILAB0505.ILE1513.Is103 ILAB0505_ILE1513_m_103_ ILAB0505_ILE1513_net1850 ILAB0505_net20070 ILAB0505_ILE1513_net2656 ILAB0505_ILE1513_nm_103_ switch2
x.ILAB0505.ILE1513.Is119 ILAB0505_ILE1513_m_119_ ILAB0505_ILE1513_net1859 net14014_3_ ILAB0505_ILE1513_net2656 ILAB0505_ILE1513_nm_119_ switch2
x.ILAB0505.ILE1513.Is127 ILAB0505_ILE1513_m_127_ ILAB0505_ILE1513_net2685 ILAB0505_net18022 ILAB0505_ILE1513_net2656 ILAB0505_ILE1513_nm_127_ switch2
x.ILAB0505.ILE1513.Is11 ILAB0505_ILE1513_B ILAB0505_ILE1513_m_11_ ILAB0505_net24052 switch
x.ILAB0505.ILE1412.Is139 ILAB0505_ILE1412_net2743 ILAB0505_ILE1412_m_139_ ILAB0505_Clk_LAB_3_ switch_sd_clk3
x.ILAB0505.ILE1412.Is44 ILAB0505_ILE1412_C ILAB0505_ILE1412_m_45_ ILAB0505_ILE1412_net2746 switch_ds
x.ILAB0505.ILE1412.Is41 ILAB0505_ILE1412_A ILAB0505_ILE1412_m_41_ ILAB0505_ILE1412_net2749 switch_ds
x.ILAB0505.ILE1412.Is121 ILAB0505_ILE1412_A ILAB0505_ILE1412_m_121_ net14018_0_ switch_sd
x.ILAB0505.ILE1412.Is36 ILAB0505_ILE1412_C ILAB0505_ILE1412_m_44_ ILAB0505_net20409 switch_sd
x.ILAB0505.ILE1412.ILE1 ILAB0505_ILE1412_net2749 ILAB0505_ILE1412_net2743 ILAB0505_ILE1412_net2746 ILAB0505_ILE1412_net2656 ILAB0505_ILE1412_net0541 ILAB0505_ILE1412_m_109_ ILAB0505_ILE1412_m_107_ ILAB0505_ILE1412_m_105_ ILAB0505_ILE1412_m_85_ ILAB0505_ILE1412_m_55_ ILAB0505_ILE1412_m_79_ ILAB0505_ILE1412_m_95_ ILAB0505_ILE1412_m_99_ ILAB0505_ILE1412_m_71_ ILAB0505_ILE1412_m_83_ ILAB0505_ILE1412_nm_75_ ILAB0505_ILE1412_nm_77_ ILAB0505_ILE1412_nm_97_ ILAB0505_ILE1412_nm_34_ ILAB0505_ILE1412_nm_101_ ILAB0505_ILE1412_nm_55_ ILAB0505_ILE1412_nm_79_ ILAB0505_ILE1412_nm_95_ ILAB0505_ILE1412_nm_71_ LE_4p0
x.ILAB0505.ILE1412.Ivi7 ILAB0505_ILE1412_net1860 ILAB0505_ILE1412_net1859 ILAB0505_net19399 sw_b_v2_inv_UCCLAB
x.ILAB0505.ILE1412.Is119 ILAB0505_ILE1412_m_119_ ILAB0505_ILE1412_net1859 net14018_1_ ILAB0505_ILE1412_net2656 ILAB0505_ILE1412_nm_119_ switch2
x.ILAB0505.ILE1412.Is131 ILAB0505_ILE1412_B ILAB0505_ILE1412_m_131_ ILAB0505_net19669 switch
x.ILAB0505.ILE1412.Is11 ILAB0505_ILE1412_B ILAB0505_ILE1412_m_11_ ILAB0505_net18067 switch
x.ILAB0505.ILE1412.Is51 ILAB0505_net20117 ILAB0505_ILE1412_m_51_ ILAB0505_net19372 switch
x.ILAB0505.ILE1512.Is141 ILAB0505_ILE1512_net2746 ILAB0505_ILE1512_m_141_ ILAB0505_Clk_LAB_3_ switch_sd_clk3
x.ILAB0505.ILE1512.Is43 ILAB0505_ILE1512_B ILAB0505_ILE1512_m_43_ ILAB0505_ILE1512_net2743 switch_ds
x.ILAB0505.ILE1512.Is41 ILAB0505_ILE1512_A ILAB0505_ILE1512_m_41_ ILAB0505_ILE1512_net2749 switch_ds
x.ILAB0505.ILE1512.Is76 ILAB0505_net20078 ILAB0505_ILE1512_m_76_ ILAB0505_net24071 switch_sd
x.ILAB0505.ILE1512.Is114 ILAB0505_ILE1512_B ILAB0505_ILE1512_m_114_ ILAB0505_net20117 switch_sd
x.ILAB0505.ILE1512.ILE1 ILAB0505_ILE1512_net2749 ILAB0505_ILE1512_net2743 ILAB0505_ILE1512_net2746 ILAB0505_ILE1512_net2656 ILAB0505_ILE1512_net0541 ILAB0505_ILE1512_m_109_ ILAB0505_ILE1512_m_107_ ILAB0505_ILE1512_m_105_ ILAB0505_ILE1512_m_85_ ILAB0505_ILE1512_m_55_ ILAB0505_ILE1512_m_79_ ILAB0505_ILE1512_m_95_ ILAB0505_ILE1512_m_99_ ILAB0505_ILE1512_m_71_ ILAB0505_ILE1512_m_83_ ILAB0505_ILE1512_nm_75_ ILAB0505_ILE1512_nm_77_ ILAB0505_ILE1512_nm_97_ ILAB0505_ILE1512_nm_34_ ILAB0505_ILE1512_nm_101_ ILAB0505_ILE1512_nm_55_ ILAB0505_ILE1512_nm_79_ ILAB0505_ILE1512_nm_95_ ILAB0505_ILE1512_nm_71_ LE_4p0
x.ILAB0505.ILE1512.Ihi7 ILAB0505_ILE1512_net1886 ILAB0505_ILE1512_net1844 ILAB0505_net19552 sw_b_v2_inv_UCCLAB
x.ILAB0505.ILE1512.Ivo1 ILAB0505_ILE1512_net1848 ILAB0505_ILE1512_net2660 net14018_3_ sw_b_v2_inv_UCCLAB
x.ILAB0505.ILE1512.Ivo3 ILAB0505_ILE1512_net1869 ILAB0505_ILE1512_net2670 ILAB0505_net20115 sw_b_v2_inv_UCCLAB
x.ILAB0505.ILE1512.Is31 ILAB0505_ILE1512_m_31_ ILAB0505_ILE1512_net1844 ILAB0505_net19642 ILAB0505_ILE1512_net2656 ILAB0505_ILE1512_nm_31_ switch2
x.ILAB0505.ILE1512.Is23 ILAB0505_ILE1512_m_23_ ILAB0505_ILE1512_net2660 ILAB0505_net19669 ILAB0505_ILE1512_net2656 ILAB0505_ILE1512_nm_23_ switch2
x.ILAB0505.ILE1512.Is7 ILAB0505_ILE1512_m_7_ ILAB0505_ILE1512_net2670 ILAB0505_net19667 ILAB0505_ILE1512_net2656 ILAB0505_ILE1512_nm_7_ switch2
x.ILAB0505.ILE1512.Is129 ILAB0505_ILE1512_A ILAB0505_ILE1512_m_129_ net13659_3_ switch
x.ILAB0505.ILE1512.Is50 ILAB0505_net20115 ILAB0505_ILE1512_m_50_ ILAB0505_net19644 switch
x.ILAB0505.ILE1414.Is44 ILAB0505_ILE1414_C ILAB0505_ILE1414_m_45_ ILAB0505_ILE1414_net2746 switch_ds
x.ILAB0505.ILE1414.Is41 ILAB0505_ILE1414_A ILAB0505_ILE1414_m_41_ ILAB0505_ILE1414_net2749 switch_ds
x.ILAB0505.ILE1414.Is3 ILAB0505_ILE1414_net2743 ILAB0505_ILE1414_m_3_ ILAB0505_Clk_LAB_0_ switch_sd_clk0